[Format]      =  4.0
[Frequency]   =  0
[Precision]   =  1e-008
[MinAngle]    =  30
[DoSmartMesh] =  1
[Depth]       =  8
[LengthUnits] =  millimeters
[ProblemType] =  planar
[Coordinates] =  cartesian
[ACSolver]    =  0
[PrevType]    =  0
[PrevSoln]    =  ""
[Comment]     =  "Add comments here."
[PointProps]   = 0
[BdryProps]   = 9
  <BeginBdry>
    <BdryName> = "Asymptotic_1"
    <BdryType> = 2
    <A_0> = 0
    <A_1> = 0
    <A_2> = 0
    <Phi> = 0
    <c0> = 29407786.97189492
    <c0i> = 0
    <c1> = 0
    <c1i> = 0
    <Mu_ssd> = 0
    <Sigma_ssd> = 0
    <innerangle> = 0
    <outerangle> = 0
  <EndBdry>
  <BeginBdry>
    <BdryName> = "Asymptotic_2"
    <BdryType> = 2
    <A_0> = 0
    <A_1> = 0
    <A_2> = 0
    <Phi> = 0
    <c0> = 17246959.589498844
    <c0i> = 0
    <c1> = 0
    <c1i> = 0
    <Mu_ssd> = 0
    <Sigma_ssd> = 0
    <innerangle> = 0
    <outerangle> = 0
  <EndBdry>
  <BeginBdry>
    <BdryName> = "airgap_radius"
    <BdryType> = 5
    <A_0> = 0
    <A_1> = 0
    <A_2> = 0
    <Phi> = 0
    <c0> = 0
    <c0i> = 0
    <c1> = 0
    <c1i> = 0
    <Mu_ssd> = 0
    <Sigma_ssd> = 0
    <innerangle> = 0
    <outerangle> = 0
  <EndBdry>
  <BeginBdry>
    <BdryName> = "airgap_vertical_1"
    <BdryType> = 5
    <A_0> = 0
    <A_1> = 0
    <A_2> = 0
    <Phi> = 0
    <c0> = 0
    <c0i> = 0
    <c1> = 0
    <c1i> = 0
    <Mu_ssd> = 0
    <Sigma_ssd> = 0
    <innerangle> = 0
    <outerangle> = 0
  <EndBdry>
  <BeginBdry>
    <BdryName> = "airgap_vertical_2"
    <BdryType> = 5
    <A_0> = 0
    <A_1> = 0
    <A_2> = 0
    <Phi> = 0
    <c0> = 0
    <c0i> = 0
    <c1> = 0
    <c1i> = 0
    <Mu_ssd> = 0
    <Sigma_ssd> = 0
    <innerangle> = 0
    <outerangle> = 0
  <EndBdry>
  <BeginBdry>
    <BdryName> = "stator_boundary"
    <BdryType> = 5
    <A_0> = 0
    <A_1> = 0
    <A_2> = 0
    <Phi> = 0
    <c0> = 0
    <c0i> = 0
    <c1> = 0
    <c1i> = 0
    <Mu_ssd> = 0
    <Sigma_ssd> = 0
    <innerangle> = 0
    <outerangle> = 0
  <EndBdry>
  <BeginBdry>
    <BdryName> = "stator_air_side"
    <BdryType> = 5
    <A_0> = 0
    <A_1> = 0
    <A_2> = 0
    <Phi> = 0
    <c0> = 0
    <c0i> = 0
    <c1> = 0
    <c1i> = 0
    <Mu_ssd> = 0
    <Sigma_ssd> = 0
    <innerangle> = 0
    <outerangle> = 0
  <EndBdry>
  <BeginBdry>
    <BdryName> = "rotor_boundary"
    <BdryType> = 5
    <A_0> = 0
    <A_1> = 0
    <A_2> = 0
    <Phi> = 0
    <c0> = 0
    <c0i> = 0
    <c1> = 0
    <c1i> = 0
    <Mu_ssd> = 0
    <Sigma_ssd> = 0
    <innerangle> = 0
    <outerangle> = 0
  <EndBdry>
  <BeginBdry>
    <BdryName> = "rotor_air_side"
    <BdryType> = 5
    <A_0> = 0
    <A_1> = 0
    <A_2> = 0
    <Phi> = 0
    <c0> = 0
    <c0i> = 0
    <c1> = 0
    <c1i> = 0
    <Mu_ssd> = 0
    <Sigma_ssd> = 0
    <innerangle> = 0
    <outerangle> = 0
  <EndBdry>
[BlockProps]  = 11
  <BeginBlock>
    <BlockName> = "Air"
    <Mu_x> = 1
    <Mu_y> = 1
    <H_c> = 0
    <H_cAngle> = 0
    <J_re> = 0
    <J_im> = 0
    <Sigma> = 0
    <d_lam> = 0
    <Phi_h> = 0
    <Phi_hx> = 0
    <Phi_hy> = 0
    <LamType> = 0
    <LamFill> = 1
    <NStrands> = 0
    <WireD> = 0
    <BHPoints> = 0
  <EndBlock>
  <BeginBlock>
    <BlockName> = "N52"
    <Mu_x> = 1.05
    <Mu_y> = 1.05
    <H_c> = 956180
    <H_cAngle> = 0
    <J_re> = 0
    <J_im> = 0
    <Sigma> = 0.66700000000000004
    <d_lam> = 0
    <Phi_h> = 0
    <Phi_hx> = 0
    <Phi_hy> = 0
    <LamType> = 0
    <LamFill> = 1
    <NStrands> = 0
    <WireD> = 0
    <BHPoints> = 8
      0	0
      0.073200000000000001	7484
      0.1464	18446
      0.2195	37084
      0.29270000000000002	72766
      0.3659	124571
      0.43909999999999999	179757
      1.4636	956180
  <EndBlock>
  <BeginBlock>
    <BlockName> = "wire"
    <Mu_x> = 1
    <Mu_y> = 1
    <H_c> = 0
    <H_cAngle> = 0
    <J_re> = 0
    <J_im> = 0
    <Sigma> = 0
    <d_lam> = 0
    <Phi_h> = 0
    <Phi_hx> = 0
    <Phi_hy> = 0
    <LamType> = 0
    <LamFill> = 1
    <NStrands> = 0
    <WireD> = 0
    <BHPoints> = 0
  <EndBlock>
  <BeginBlock>
    <BlockName> = "A"
    <Mu_x> = 1
    <Mu_y> = 1
    <H_c> = 0
    <H_cAngle> = 0
    <J_re> = 0
    <J_im> = 0
    <Sigma> = 0
    <d_lam> = 0
    <Phi_h> = 0
    <Phi_hx> = 0
    <Phi_hy> = 0
    <LamType> = 0
    <LamFill> = 1
    <NStrands> = 0
    <WireD> = 0
    <BHPoints> = 0
  <EndBlock>
  <BeginBlock>
    <BlockName> = "a"
    <Mu_x> = 1
    <Mu_y> = 1
    <H_c> = 0
    <H_cAngle> = 0
    <J_re> = 0
    <J_im> = 0
    <Sigma> = 0
    <d_lam> = 0
    <Phi_h> = 0
    <Phi_hx> = 0
    <Phi_hy> = 0
    <LamType> = 0
    <LamFill> = 1
    <NStrands> = 0
    <WireD> = 0
    <BHPoints> = 0
  <EndBlock>
  <BeginBlock>
    <BlockName> = "B"
    <Mu_x> = 1
    <Mu_y> = 1
    <H_c> = 0
    <H_cAngle> = 0
    <J_re> = 0
    <J_im> = 0
    <Sigma> = 0
    <d_lam> = 0
    <Phi_h> = 0
    <Phi_hx> = 0
    <Phi_hy> = 0
    <LamType> = 0
    <LamFill> = 1
    <NStrands> = 0
    <WireD> = 0
    <BHPoints> = 0
  <EndBlock>
  <BeginBlock>
    <BlockName> = "b"
    <Mu_x> = 1
    <Mu_y> = 1
    <H_c> = 0
    <H_cAngle> = 0
    <J_re> = 0
    <J_im> = 0
    <Sigma> = 0
    <d_lam> = 0
    <Phi_h> = 0
    <Phi_hx> = 0
    <Phi_hy> = 0
    <LamType> = 0
    <LamFill> = 1
    <NStrands> = 0
    <WireD> = 0
    <BHPoints> = 0
  <EndBlock>
  <BeginBlock>
    <BlockName> = "C"
    <Mu_x> = 1
    <Mu_y> = 1
    <H_c> = 0
    <H_cAngle> = 0
    <J_re> = 0
    <J_im> = 0
    <Sigma> = 0
    <d_lam> = 0
    <Phi_h> = 0
    <Phi_hx> = 0
    <Phi_hy> = 0
    <LamType> = 0
    <LamFill> = 1
    <NStrands> = 0
    <WireD> = 0
    <BHPoints> = 0
  <EndBlock>
  <BeginBlock>
    <BlockName> = "c"
    <Mu_x> = 1
    <Mu_y> = 1
    <H_c> = 0
    <H_cAngle> = 0
    <J_re> = 0
    <J_im> = 0
    <Sigma> = 0
    <d_lam> = 0
    <Phi_h> = 0
    <Phi_hx> = 0
    <Phi_hy> = 0
    <LamType> = 0
    <LamFill> = 1
    <NStrands> = 0
    <WireD> = 0
    <BHPoints> = 0
  <EndBlock>
  <BeginBlock>
    <BlockName> = "Hiperco-50"
    <Mu_x> = 3520
    <Mu_y> = 3520
    <H_c> = 0
    <H_cAngle> = 0
    <J_re> = 0
    <J_im> = 0
    <Sigma> = 2.5
    <d_lam> = 0.20000000000000001
    <Phi_h> = 20
    <Phi_hx> = 0
    <Phi_hy> = 0
    <LamType> = 0
    <LamFill> = 0.92800000000000005
    <NStrands> = 0
    <WireD> = 0
    <BHPoints> = 22
      0	0
      0.29072999999999999	81.170000000000002
      0.42870999999999998	106.8
      0.58955999999999997	136.84
      0.79627000000000003	179.91
      1.0201	233.41
      1.1980999999999999	283.70999999999998
      1.3989	344.75
      1.5596000000000001	402.92000000000002
      1.7835000000000001	536.63999999999999
      1.8985000000000001	670.10000000000002
      1.9906999999999999	893.79999999999995
      2.0543999999999998	1290.4000000000001
      2.1183999999999998	2209.8000000000002
      2.1476999999999999	3233.6999999999998
      2.177	4549
      2.2065000000000001	7297.8000000000002
      2.2416999999999998	11554
      2.2711999999999999	18294
      2.2890000000000001	25071
      2.3126000000000002	36690
      2.3410000000000002	62037
  <EndBlock>
  <BeginBlock>
    <BlockName> = "Hiperco-50"
    <Mu_x> = 3520
    <Mu_y> = 3520
    <H_c> = 0
    <H_cAngle> = 0
    <J_re> = 0
    <J_im> = 0
    <Sigma> = 2.5
    <d_lam> = 0
    <Phi_h> = 20
    <Phi_hx> = 0
    <Phi_hy> = 0
    <LamType> = 0
    <LamFill> = 1
    <NStrands> = 0
    <WireD> = 0
    <BHPoints> = 22
      0	0
      0.29072999999999999	81.170000000000002
      0.42870999999999998	106.8
      0.58955999999999997	136.84
      0.79627000000000003	179.91
      1.0201	233.41
      1.1980999999999999	283.70999999999998
      1.3989	344.75
      1.5596000000000001	402.92000000000002
      1.7835000000000001	536.63999999999999
      1.8985000000000001	670.10000000000002
      1.9906999999999999	893.79999999999995
      2.0543999999999998	1290.4000000000001
      2.1183999999999998	2209.8000000000002
      2.1476999999999999	3233.6999999999998
      2.177	4549
      2.2065000000000001	7297.8000000000002
      2.2416999999999998	11554
      2.2711999999999999	18294
      2.2890000000000001	25071
      2.3126000000000002	36690
      2.3410000000000002	62037
  <EndBlock>
[CircuitProps]  = 6
  <BeginCircuit>
    <CircuitName> = "A"
    <TotalAmps_re> = 359.2292123658973
    <TotalAmps_im> = 0
    <CircuitType> = 1
  <EndCircuit>
  <BeginCircuit>
    <CircuitName> = "a"
    <TotalAmps_re> = -359.2292123658973
    <TotalAmps_im> = -0
    <CircuitType> = 1
  <EndCircuit>
  <BeginCircuit>
    <CircuitName> = "B"
    <TotalAmps_re> = -159.22392847884097
    <TotalAmps_im> = -0
    <CircuitType> = 1
  <EndCircuit>
  <BeginCircuit>
    <CircuitName> = "b"
    <TotalAmps_re> = 159.22392847884097
    <TotalAmps_im> = 0
    <CircuitType> = 1
  <EndCircuit>
  <BeginCircuit>
    <CircuitName> = "C"
    <TotalAmps_re> = -200.00528388705615
    <TotalAmps_im> = -0
    <CircuitType> = 1
  <EndCircuit>
  <BeginCircuit>
    <CircuitName> = "c"
    <TotalAmps_re> = 200.00528388705615
    <TotalAmps_im> = 0
    <CircuitType> = 1
  <EndCircuit>
[NumPoints] = 137
0	40.5	0	1
2.4971592852991478	40.422941450417042	0	1
2.4971592852991478	39.922941450417042	0	1
0.98950321518245288	39.724454763283383	0	1
0.98950321518245288	31.484454630613243	0	1
2.7454058965512322	31.380132989889983	0	1
3.4863136600845945	39.848747478598249	0	1
7.032751195510679	39.884713996994428	0	1
4.5601482941329161	40.242453299165511	0	1
4.4733242052994502	39.750049422659401	0	1
5.9236087405143829	39.29277646517621	0	1
4.4927477335009485	31.17796044970104	0	1
9.4785919434709669	39.375198980693	0	1
9.3917678546375001	38.882795104186897	0	1
7.8725496163987563	38.949125604952208	0	1
6.4416886093853227	30.834309589477034	0	1
8.1527999207294037	30.426663528105649	0	1
10.353011103851948	38.637963450900216	0	1
13.851815804689583	38.057551141829293	0	1
11.478898075194131	38.839218568082764	0	1
11.307888003531293	38.369372257689804	0	1
12.656734842121342	37.667207037278928	0	1
9.8384888157419716	29.924139717333901	0	1
16.172022381839373	37.131061014752682	0	1
16.001012310176538	36.661214704359729	0	1
14.516392581223107	36.99034697432311	0	1
11.698146554843737	29.247279654378076	0	1
13.312475244832031	28.548695291654475	0	1
16.905137544105159	36.253184455499479	0	1
20.25	35.074028853269773	0	1
18.048867346843267	36.255873834401719	0	1
17.798867346843267	35.822861132509502	0	1
19.005292460167304	34.897138584080388	0	1
14.885292393832238	27.761089142000905	0	1
22.374074103573772	33.758714549102571	0	1
22.124074103573772	33.325701847210347	0	1
20.719162303116072	33.907635368897935	0	1
16.599162236781005	26.77158592681845	0	1
18.06765774505795	25.803289395103242	0	1
22.943609934493086	32.766870795414889	0	1
26.032898192304842	31.024799946318613	0	1
24.070430917326131	32.570912720619773	0	1
23.749037112482856	32.187890499060281	0	1
24.776383883953102	31.066738233808728	0	1
19.479813894857298	24.754531920877128	0	1
27.896300905498869	29.360626624611793	0	1
27.574907100655601	28.977604403052304	0	1
26.292390762830866	29.794657420880178	0	1
20.995820773735058	23.482451107948574	0	1
22.273863607376242	22.273863607376246	0	1
28.284952347048264	28.284952347048268	0	1
31.024799946318609	26.032898192304842	0	1
29.360626624611793	27.896300905498876	0	1
28.977604403052297	27.574907100655601	0	1
29.794657420880171	26.292390762830863	0	1
23.482451107948577	20.995820773735062	0	1
32.570912720619766	24.070430917326131	0	1
32.187890499060273	23.749037112482863	0	1
31.066738233808728	24.776383883953109	0	1
24.754531920877124	19.479813894857301	0	1
25.803289395103238	18.067657745057954	0	1
32.766870795414881	22.943609934493093	0	1
35.074028853269766	20.250000000000004	0	1
33.758714549102571	22.374074103573783	0	1
33.325701847210347	22.124074103573776	0	1
33.907635368897928	20.719162303116072	0	1
26.771585926818446	16.599162236781009	0	1
0	29.300000000000001	0	3
0	27.060000000000002	0	3
25.374544330884053	14.650000000000004	0	3
23.434647426406912	13.530000000000005	0	3
3.5318030575269819	41.871311982822355	0	2
0.39288035679932637	42.018163275246117	0	2
3.4208563646203753	40.555982810587103	0	2
0.83713800397516258	40.691389752161335	0	2
0.84948054776267123	42.011412530394324	0	2
0.38053856548625853	40.698220973405924	0	2
6.6509744829246884	41.490299329210487	0	2
5.9907509217862813	40.256687685316543	0	2
6.1996947958294166	41.56012733905618	0	2
6.4420433473354315	40.186939140858328	0	2
9.7329509611282923	40.877256091722586	0	2
9.427203810516934	39.593153806118735	0	2
6.8925248066553015	40.112131603663762	0	2
7.1014686806984377	41.4155712574034	0	2
12.760496829506007	40.03561065681609	0	2
11.923787145064949	38.91417865147848	0	2
12.32466488848695	40.171918492729425	0	2
12.359643525961317	38.777947494821881	0	2
15.716680823475315	38.97006984716608	0	2
15.222963101271901	37.745879171338878	0	2
12.793943994709148	38.636834718442522	0	2
13.194821738131147	39.894574559693474	0	2
18.584970763002431	37.686592599203557	0	2
17.590465666988003	36.702391170310896	0	2
18.174322333431345	37.886335369372134	0	2
18.001149691913351	36.502720580380419	0	2
21.349326007259165	36.192356638325826	0	2
20.678666551533752	35.055423969059049	0	2
18.409567615277243	36.298454791058738	0	2
18.993424281720586	37.482398990119975	0	2
23.994287160393093	34.495718338144442	0	2
22.864202253280055	33.670732919274315	0	2
23.617995449610497	34.754434119147696	0	2
23.240539919752475	33.412083207103258	0	2
26.505062526740097	32.606165988254396	0	2
25.672442761502193	31.581888522654779	0	2
23.613951916214774	33.14922736503366	0	2
24.367745112545219	34.232928564907048	0	2
28.867610831986568	30.534266731869813	0	2
27.62719034319073	29.886926134032397	0	2
28.534081575008003	30.846176240675092	0	2
27.960774889620499	29.575075106784901	0	2
31.068719747671039	28.291607470072734	0	2
30.092739022613312	27.402865874154219	0	2
28.290839552224988	29.259500977123011	0	2
29.19773078404226	30.218751083765703	0	2
33.096079779884391	25.890730063162124	0	2
31.773032653392292	25.435494805614972	0	2
32.812763469170264	26.24886575675766	0	2
32.056412352244045	25.077408699921438	0	2
34.938353108952953	23.345061191483683	0	2
33.840813220713592	22.611708483897814	0	2
32.335756581843583	24.716165687253344	0	2
33.375487397621555	25.529536638396024	0	2
36.585236995125143	20.668837267986948	0	2
35.209117917473066	20.415876554130044	0	2
36.358462448890691	21.065198986779233	0	2
35.435962534545304	20.019554421872176	0	2
0.40597013546470134	43.418102080228138	0	20
0.43140170544314416	46.137983187050352	0	20
37.804164453315899	21.357470589623823	0	20
40.172366372086501	22.695386757375477	0	20
0	40.600000000000001	0	0
35.34889628753168	19.970366327469538	0	0
35.16063139364821	20.300000000000004	0	0
0.37960358129587457	40.598225344478635	0	0
[NumSegments] = 82
1	2	1	0	0	1
2	3	1	0	0	1
3	4	1	0	0	1
2	6	1	0	0	1
5	6	1	0	0	1
8	9	1	0	0	1
9	10	1	0	0	1
10	11	1	0	0	1
9	6	1	0	0	1
12	13	1	0	0	1
13	14	1	0	0	1
14	15	1	0	0	1
13	17	1	0	0	1
16	17	1	0	0	1
19	20	1	0	0	1
20	21	1	0	0	1
21	22	1	0	0	1
20	17	1	0	0	1
23	24	1	0	0	1
24	25	1	0	0	1
25	26	1	0	0	1
24	28	1	0	0	1
27	28	1	0	0	1
30	31	1	0	0	1
31	32	1	0	0	1
32	33	1	0	0	1
31	28	1	0	0	1
34	35	1	0	0	1
35	36	1	0	0	1
36	37	1	0	0	1
35	39	1	0	0	1
38	39	1	0	0	1
41	42	1	0	0	1
42	43	1	0	0	1
43	44	1	0	0	1
42	39	1	0	0	1
45	46	1	0	0	1
46	47	1	0	0	1
47	48	1	0	0	1
46	50	1	0	0	1
49	50	1	0	0	1
52	53	1	0	0	1
53	54	1	0	0	1
54	55	1	0	0	1
53	50	1	0	0	1
56	57	1	0	0	1
57	58	1	0	0	1
58	59	1	0	0	1
57	61	1	0	0	1
60	61	1	0	0	1
63	64	1	0	0	1
64	65	1	0	0	1
65	66	1	0	0	1
64	61	1	0	0	1
67	68	1	7	0	1
69	70	1	7	0	1
74	75	1	0	0	2
78	79	1	0	0	2
83	84	1	0	0	2
86	87	1	0	0	2
91	92	1	0	0	2
94	95	1	0	0	2
99	100	1	0	0	2
102	103	1	0	0	2
107	108	1	0	0	2
110	111	1	0	0	2
115	116	1	0	0	2
118	119	1	0	0	2
123	124	1	0	0	2
126	127	1	0	0	2
129	130	1	9	0	2
131	132	1	9	0	2
67	0	1	6	0	1
69	62	1	6	0	1
135	62	1	4	0	7
0	133	1	4	0	7
129	72	1	8	0	2
131	125	1	8	0	2
136	76	-1	0	0	0
76	72	1	5	0	2
134	128	-1	0	0	0
128	125	1	5	0	2
[NumArcSegments] = 86
1	0	3.5366848342485966	1.6005661299291876	0	0	1	1.6005661299291876
5	4	3.2011322598583751	1.6005661299291876	0	0	1	1.6005661299291876
7	8	3.5366848342485966	1.6005661299291876	0	0	1	1.6005661299291876
11	5	3.2011322598583751	1.6005661299291876	0	0	1	1.6005661299291876
12	7	3.5366848342485966	1.6005661299291876	0	0	1	1.6005661299291876
16	15	3.2011322598583751	1.6005661299291876	0	0	1	1.6005661299291876
18	19	3.5366848342485966	1.6005661299291876	0	0	1	1.6005661299291876
22	16	3.2011322598583751	1.6005661299291876	0	0	1	1.6005661299291876
23	18	3.5366848342485966	1.6005661299291876	0	0	1	1.6005661299291876
27	26	3.2011322598583751	1.6005661299291876	0	0	1	1.6005661299291876
29	30	3.5366848342485966	1.6005661299291876	0	0	1	1.6005661299291876
33	27	3.2011322598583751	1.6005661299291876	0	0	1	1.6005661299291876
34	29	3.5366848342485966	1.6005661299291876	0	0	1	1.6005661299291876
38	37	3.2011322598583751	1.6005661299291876	0	0	1	1.6005661299291876
40	41	3.5366848342485966	1.6005661299291876	0	0	1	1.6005661299291876
44	38	3.2011322598583751	1.6005661299291876	0	0	1	1.6005661299291876
45	40	3.5366848342485966	1.6005661299291876	0	0	1	1.6005661299291876
49	48	3.2011322598583751	1.6005661299291876	0	0	1	1.6005661299291876
51	52	3.5366848342485966	1.6005661299291876	0	0	1	1.6005661299291876
55	49	3.2011322598583751	1.6005661299291876	0	0	1	1.6005661299291876
56	51	3.5366848342485966	1.6005661299291876	0	0	1	1.6005661299291876
60	59	3.2011322598583751	1.6005661299291876	0	0	1	1.6005661299291876
62	63	3.5366848342485966	1.6005661299291876	0	0	1	1.6005661299291876
66	60	3.2011322598583751	1.6005661299291876	0	0	1	1.6005661299291876
69	67	59.999999999999993	10	1	0	1	10
70	68	59.999999999999993	5.9999999999999991	0	0	17	1.5
75	72	0.62267106241799541	0.032143362969958018	0	0	2	0.032143362969958018
71	75	3.6649272888475131	0.032143362969958018	0	0	2	0.032143362969958018
73	74	3.644701140131394	0.032143362969958018	0	0	2	0.032143362969958018
74	76	0.64286725939916034	0.032143362969958018	0	0	2	0.032143362969958018
77	79	0.62267106241799541	0.032143362969958018	0	0	2	0.032143362969958018
79	71	3.6649272888475131	0.032143362969958018	0	0	2	0.032143362969958018
78	73	3.644701140131394	0.032143362969958018	0	0	2	0.032143362969958018
80	78	0.64286725939916034	0.032143362969958018	0	0	2	0.032143362969958018
84	77	0.62267106241799541	0.032143362969958018	0	0	2	0.032143362969958018
81	84	3.6649272888475131	0.032143362969958018	0	0	2	0.032143362969958018
82	83	3.644701140131394	0.032143362969958018	0	0	2	0.032143362969958018
83	80	0.64286725939916034	0.032143362969958018	0	0	2	0.032143362969958018
85	87	0.62267106241799541	0.032143362969958018	0	0	2	0.032143362969958018
87	81	3.6649272888475131	0.032143362969958018	0	0	2	0.032143362969958018
86	82	3.644701140131394	0.032143362969958018	0	0	2	0.032143362969958018
88	86	0.64286725939916034	0.032143362969958018	0	0	2	0.032143362969958018
92	85	0.62267106241799541	0.032143362969958018	0	0	2	0.032143362969958018
89	92	3.6649272888475131	0.032143362969958018	0	0	2	0.032143362969958018
90	91	3.644701140131394	0.032143362969958018	0	0	2	0.032143362969958018
91	88	0.64286725939916034	0.032143362969958018	0	0	2	0.032143362969958018
93	95	0.62267106241799541	0.032143362969958018	0	0	2	0.032143362969958018
95	89	3.6649272888475131	0.032143362969958018	0	0	2	0.032143362969958018
94	90	3.644701140131394	0.032143362969958018	0	0	2	0.032143362969958018
96	94	0.64286725939916034	0.032143362969958018	0	0	2	0.032143362969958018
100	93	0.62267106241799541	0.032143362969958018	0	0	2	0.032143362969958018
97	100	3.6649272888475131	0.032143362969958018	0	0	2	0.032143362969958018
98	99	3.644701140131394	0.032143362969958018	0	0	2	0.032143362969958018
99	96	0.64286725939916034	0.032143362969958018	0	0	2	0.032143362969958018
101	103	0.62267106241799541	0.032143362969958018	0	0	2	0.032143362969958018
103	97	3.6649272888475131	0.032143362969958018	0	0	2	0.032143362969958018
102	98	3.644701140131394	0.032143362969958018	0	0	2	0.032143362969958018
104	102	0.64286725939916034	0.032143362969958018	0	0	2	0.032143362969958018
108	101	0.62267106241799541	0.032143362969958018	0	0	2	0.032143362969958018
105	108	3.6649272888475131	0.032143362969958018	0	0	2	0.032143362969958018
106	107	3.644701140131394	0.032143362969958018	0	0	2	0.032143362969958018
107	104	0.64286725939916034	0.032143362969958018	0	0	2	0.032143362969958018
109	111	0.62267106241799541	0.032143362969958018	0	0	2	0.032143362969958018
111	105	3.6649272888475131	0.032143362969958018	0	0	2	0.032143362969958018
110	106	3.644701140131394	0.032143362969958018	0	0	2	0.032143362969958018
112	110	0.64286725939916034	0.032143362969958018	0	0	2	0.032143362969958018
116	109	0.62267106241799541	0.032143362969958018	0	0	2	0.032143362969958018
113	116	3.6649272888475131	0.032143362969958018	0	0	2	0.032143362969958018
114	115	3.644701140131394	0.032143362969958018	0	0	2	0.032143362969958018
115	112	0.64286725939916034	0.032143362969958018	0	0	2	0.032143362969958018
117	119	0.62267106241799541	0.032143362969958018	0	0	2	0.032143362969958018
119	113	3.6649272888475131	0.032143362969958018	0	0	2	0.032143362969958018
118	114	3.644701140131394	0.032143362969958018	0	0	2	0.032143362969958018
120	118	0.64286725939916034	0.032143362969958018	0	0	2	0.032143362969958018
124	117	0.62267106241799541	0.032143362969958018	0	0	2	0.032143362969958018
121	124	3.6649272888475131	0.032143362969958018	0	0	2	0.032143362969958018
122	123	3.644701140131394	0.032143362969958018	0	0	2	0.032143362969958018
123	120	0.64286725939916034	0.032143362969958018	0	0	2	0.032143362969958018
125	127	0.62267106241799541	0.032143362969958018	0	0	2	0.032143362969958018
127	121	3.6649272888475131	0.032143362969958018	0	0	2	0.032143362969958018
126	122	3.644701140131394	0.032143362969958018	0	0	2	0.032143362969958018
128	126	0.64286725939916034	0.032143362969958018	0	0	2	0.032143362969958018
131	129	60.000000000000007	10	2	0	2	10
132	130	60.000000000000021	6.0000000000000018	0	0	19	0.76000000000000001
136	133	0.5357142857142857	10	3	0	10	0.037999999999999999
134	135	0.53571428571429314	10	3	0	10	0.037999999999999999
[NumHoles] = 0
[NumBlockLabels] = 32
3.4763297110736784	41.213647396704722	2	607811111010162	0	85.178571428571431	12	1	0
6.5465089151300617	40.8386192350344	2	607811111010162	0	-9.1071428571428736	12	1	0
9.5800773858226123	40.235204948920654	2	607811111010162	0	-103.39285714285715	12	1	0
12.560070177733664	39.406779075818974	2	607811111010162	0	162.32142857142856	12	1	0
15.469821962373608	38.357974509252465	2	607811111010162	0	68.035714285714278	12	1	0
18.29306022745789	37.094656589791967	2	607811111010162	0	-26.250000000000021	12	1	0
21.013996279396451	35.623890303692413	2	607811111010162	0	-120.53571428571429	12	1	0
23.617413540072778	33.953900772623825	2	607811111010162	0	145.17857142857142	12	1	0
26.088752644121136	32.094027255454563	2	607811111010162	0	50.892857142857132	12	1	0
28.414192860803521	30.054670919327336	2	607811111010162	0	-43.392857142857153	12	1	0
30.580729385142163	27.847236672113453	2	607811111010162	0	-137.67857142857144	12	1	0
32.576246066064208	25.484069381541758	2	607811111010162	0	128.03571428571428	12	1	0
34.389583164833255	22.978384837690726	2	607811111010162	0	33.749999999999986	12	1	0
35.990237567082602	20.380196266595533	2	607811111010162	0	-60.535714285714313	12	1	0
0.42806745301937243	41.357784735834976	2	607811111010162	0	179.46428571428572	12	1	0
2.052681496750183	35.609447465596219	4	607811111010162	1	0	11	1	0
8.2050123125913572	34.712015543358781	5	607811111010162	2	0	11	1	0
14.108037981251009	32.759876593963789	7	607811111010162	4	0	11	1	0
19.582398054862029	29.812345371558628	6	607811111010162	3	0	11	1	0
24.461756872747607	25.95898112081332	8	607811111010162	5	0	11	1	0
28.597857586300989	21.316866364590364	9	607811111010162	6	0	11	1	0
4.1620190076627885	35.424904345841377	4	607811111010162	1	0	11	1	0
10.250258670611167	34.163993433404684	6	607811111010162	3	0	11	1	0
16.027049410734183	31.865026868308821	7	607811111010162	4	0	11	1	0
21.316866364590361	28.597857586301004	9	607811111010162	6	0	11	1	0
25.958981120813316	24.461756872747621	8	607811111010162	5	0	11	1	0
29.812345371558624	19.58239805486204	4	607811111010162	1	0	11	1	0
2.0926976268225808	44.731074396248204	1	607811111010162	0	0	0	1	0
1.5721430935600174	30.338273068647844	11	607811111010162	0	0	1	1	0
3.5906384249774552	42.56883502870469	11	607811111010162	0	0	2	1	0
2.8268774102276297	40.064876793144116	1	607811111010162	0	0	0	1	0
2.4560488306290069	28.072766592225388	1	607811111010162	0	0	0	1	0
