[Format]      =  4.0
[Frequency]   =  0
[Precision]   =  1e-008
[MinAngle]    =  30
[DoSmartMesh] =  1
[Depth]       =  8
[LengthUnits] =  millimeters
[ProblemType] =  planar
[Coordinates] =  cartesian
[ACSolver]    =  0
[PrevType]    =  0
[PrevSoln]    =  ""
[Comment]     =  "Add comments here."
[PointProps]   = 0
[BdryProps]   = 9
  <BeginBdry>
    <BdryName> = "Asymptotic_1"
    <BdryType> = 2
    <A_0> = 0
    <A_1> = 0
    <A_2> = 0
    <Phi> = 0
    <c0> = 29407786.97189492
    <c0i> = 0
    <c1> = 0
    <c1i> = 0
    <Mu_ssd> = 0
    <Sigma_ssd> = 0
    <innerangle> = 0
    <outerangle> = 0
  <EndBdry>
  <BeginBdry>
    <BdryName> = "Asymptotic_2"
    <BdryType> = 2
    <A_0> = 0
    <A_1> = 0
    <A_2> = 0
    <Phi> = 0
    <c0> = 17246959.589498844
    <c0i> = 0
    <c1> = 0
    <c1i> = 0
    <Mu_ssd> = 0
    <Sigma_ssd> = 0
    <innerangle> = 0
    <outerangle> = 0
  <EndBdry>
  <BeginBdry>
    <BdryName> = "airgap_radius"
    <BdryType> = 5
    <A_0> = 0
    <A_1> = 0
    <A_2> = 0
    <Phi> = 0
    <c0> = 0
    <c0i> = 0
    <c1> = 0
    <c1i> = 0
    <Mu_ssd> = 0
    <Sigma_ssd> = 0
    <innerangle> = 0
    <outerangle> = 0
  <EndBdry>
  <BeginBdry>
    <BdryName> = "airgap_vertical_1"
    <BdryType> = 5
    <A_0> = 0
    <A_1> = 0
    <A_2> = 0
    <Phi> = 0
    <c0> = 0
    <c0i> = 0
    <c1> = 0
    <c1i> = 0
    <Mu_ssd> = 0
    <Sigma_ssd> = 0
    <innerangle> = 0
    <outerangle> = 0
  <EndBdry>
  <BeginBdry>
    <BdryName> = "airgap_vertical_2"
    <BdryType> = 5
    <A_0> = 0
    <A_1> = 0
    <A_2> = 0
    <Phi> = 0
    <c0> = 0
    <c0i> = 0
    <c1> = 0
    <c1i> = 0
    <Mu_ssd> = 0
    <Sigma_ssd> = 0
    <innerangle> = 0
    <outerangle> = 0
  <EndBdry>
  <BeginBdry>
    <BdryName> = "stator_boundary"
    <BdryType> = 5
    <A_0> = 0
    <A_1> = 0
    <A_2> = 0
    <Phi> = 0
    <c0> = 0
    <c0i> = 0
    <c1> = 0
    <c1i> = 0
    <Mu_ssd> = 0
    <Sigma_ssd> = 0
    <innerangle> = 0
    <outerangle> = 0
  <EndBdry>
  <BeginBdry>
    <BdryName> = "stator_air_side"
    <BdryType> = 5
    <A_0> = 0
    <A_1> = 0
    <A_2> = 0
    <Phi> = 0
    <c0> = 0
    <c0i> = 0
    <c1> = 0
    <c1i> = 0
    <Mu_ssd> = 0
    <Sigma_ssd> = 0
    <innerangle> = 0
    <outerangle> = 0
  <EndBdry>
  <BeginBdry>
    <BdryName> = "rotor_boundary"
    <BdryType> = 5
    <A_0> = 0
    <A_1> = 0
    <A_2> = 0
    <Phi> = 0
    <c0> = 0
    <c0i> = 0
    <c1> = 0
    <c1i> = 0
    <Mu_ssd> = 0
    <Sigma_ssd> = 0
    <innerangle> = 0
    <outerangle> = 0
  <EndBdry>
  <BeginBdry>
    <BdryName> = "rotor_air_side"
    <BdryType> = 5
    <A_0> = 0
    <A_1> = 0
    <A_2> = 0
    <Phi> = 0
    <c0> = 0
    <c0i> = 0
    <c1> = 0
    <c1i> = 0
    <Mu_ssd> = 0
    <Sigma_ssd> = 0
    <innerangle> = 0
    <outerangle> = 0
  <EndBdry>
[BlockProps]  = 11
  <BeginBlock>
    <BlockName> = "Air"
    <Mu_x> = 1
    <Mu_y> = 1
    <H_c> = 0
    <H_cAngle> = 0
    <J_re> = 0
    <J_im> = 0
    <Sigma> = 0
    <d_lam> = 0
    <Phi_h> = 0
    <Phi_hx> = 0
    <Phi_hy> = 0
    <LamType> = 0
    <LamFill> = 1
    <NStrands> = 0
    <WireD> = 0
    <BHPoints> = 0
  <EndBlock>
  <BeginBlock>
    <BlockName> = "N42"
    <Mu_x> = 1.05
    <Mu_y> = 1.05
    <H_c> = 994529
    <H_cAngle> = 0
    <J_re> = 0
    <J_im> = 0
    <Sigma> = 0.66700000000000004
    <d_lam> = 0
    <Phi_h> = 0
    <Phi_hx> = 0
    <Phi_hy> = 0
    <LamType> = 0
    <LamFill> = 1
    <NStrands> = 0
    <WireD> = 0
    <BHPoints> = 0
  <EndBlock>
  <BeginBlock>
    <BlockName> = "wire"
    <Mu_x> = 1
    <Mu_y> = 1
    <H_c> = 0
    <H_cAngle> = 0
    <J_re> = 0
    <J_im> = 0
    <Sigma> = 0
    <d_lam> = 0
    <Phi_h> = 0
    <Phi_hx> = 0
    <Phi_hy> = 0
    <LamType> = 0
    <LamFill> = 1
    <NStrands> = 0
    <WireD> = 0
    <BHPoints> = 0
  <EndBlock>
  <BeginBlock>
    <BlockName> = "A"
    <Mu_x> = 1
    <Mu_y> = 1
    <H_c> = 0
    <H_cAngle> = 0
    <J_re> = 17.095341470704799
    <J_im> = 0
    <Sigma> = 0
    <d_lam> = 0
    <Phi_h> = 0
    <Phi_hx> = 0
    <Phi_hy> = 0
    <LamType> = 0
    <LamFill> = 1
    <NStrands> = 0
    <WireD> = 0
    <BHPoints> = 0
  <EndBlock>
  <BeginBlock>
    <BlockName> = "a"
    <Mu_x> = 1
    <Mu_y> = 1
    <H_c> = 0
    <H_cAngle> = 0
    <J_re> = -17.095341470704799
    <J_im> = -0
    <Sigma> = 0
    <d_lam> = 0
    <Phi_h> = 0
    <Phi_hx> = 0
    <Phi_hy> = 0
    <LamType> = 0
    <LamFill> = 1
    <NStrands> = 0
    <WireD> = 0
    <BHPoints> = 0
  <EndBlock>
  <BeginBlock>
    <BlockName> = "B"
    <Mu_x> = 1
    <Mu_y> = 1
    <H_c> = 0
    <H_cAngle> = 0
    <J_re> = -17.095341470704838
    <J_im> = -0
    <Sigma> = 0
    <d_lam> = 0
    <Phi_h> = 0
    <Phi_hx> = 0
    <Phi_hy> = 0
    <LamType> = 0
    <LamFill> = 1
    <NStrands> = 0
    <WireD> = 0
    <BHPoints> = 0
  <EndBlock>
  <BeginBlock>
    <BlockName> = "b"
    <Mu_x> = 1
    <Mu_y> = 1
    <H_c> = 0
    <H_cAngle> = 0
    <J_re> = 17.095341470704838
    <J_im> = 0
    <Sigma> = 0
    <d_lam> = 0
    <Phi_h> = 0
    <Phi_hx> = 0
    <Phi_hy> = 0
    <LamType> = 0
    <LamFill> = 1
    <NStrands> = 0
    <WireD> = 0
    <BHPoints> = 0
  <EndBlock>
  <BeginBlock>
    <BlockName> = "C"
    <Mu_x> = 1
    <Mu_y> = 1
    <H_c> = 0
    <H_cAngle> = 0
    <J_re> = 4.3831605012201181e-014
    <J_im> = 0
    <Sigma> = 0
    <d_lam> = 0
    <Phi_h> = 0
    <Phi_hx> = 0
    <Phi_hy> = 0
    <LamType> = 0
    <LamFill> = 1
    <NStrands> = 0
    <WireD> = 0
    <BHPoints> = 0
  <EndBlock>
  <BeginBlock>
    <BlockName> = "c"
    <Mu_x> = 1
    <Mu_y> = 1
    <H_c> = 0
    <H_cAngle> = 0
    <J_re> = -4.3831605012201181e-014
    <J_im> = -0
    <Sigma> = 0
    <d_lam> = 0
    <Phi_h> = 0
    <Phi_hx> = 0
    <Phi_hy> = 0
    <LamType> = 0
    <LamFill> = 1
    <NStrands> = 0
    <WireD> = 0
    <BHPoints> = 0
  <EndBlock>
  <BeginBlock>
    <BlockName> = "M-19 Steel"
    <Mu_x> = 4416
    <Mu_y> = 4416
    <H_c> = 0
    <H_cAngle> = 0
    <J_re> = 0
    <J_im> = 0
    <Sigma> = 1.8999999999999999
    <d_lam> = 0.20000000000000001
    <Phi_h> = 0
    <Phi_hx> = 0
    <Phi_hy> = 0
    <LamType> = 0
    <LamFill> = 0.92800000000000005
    <NStrands> = 0
    <WireD> = 0
    <BHPoints> = 47
      0	0
      0.050000000000000003	15.120714
      0.10000000000000001	22.718292000000002
      0.14999999999999999	27.842732999999999
      0.20000000000000001	31.871434000000001
      0.25	35.365043999999997
      0.29999999999999999	38.600588000000002
      0.34999999999999998	41.736201999999999
      0.40000000000000002	44.873978999999999
      0.45000000000000001	48.087806999999998
      0.5	51.437235999999999
      0.55000000000000004	54.975220999999998
      0.59999999999999998	58.752992999999996
      0.65000000000000002	62.823644000000002
      0.69999999999999996	67.245284999999996
      0.75	72.084406000000001
      0.80000000000000004	77.420100000000005
      0.84999999999999998	83.350020999999998
      0.90000000000000002	89.999611999999999
      0.94999999999999996	97.537352999999996
      1	106.20140600000001
      1.05	116.34846400000001
      1.1000000000000001	128.54732899999999
      1.1499999999999999	143.76543100000001
      1.2	163.75416899999999
      1.25	191.86815799999999
      1.3	234.833507
      1.3500000000000001	306.50976900000001
      1.3999999999999999	435.255202
      1.45	674.911968
      1.5	1108.3255690000001
      1.55	1813.085468
      1.6000000000000001	2801.2174209999998
      1.6499999999999999	4053.6531169999998
      1.7	5591.10689
      1.75	7448.318413
      1.8	9708.81567
      1.8500000000000001	12486.931615
      1.8999999999999999	16041.483644
      1.95	21249.420623999998
      2	31313.495878000002
      2.0499999999999998	53589.446877000002
      2.1000000000000001	88477.484601000004
      2.1499999999999999	124329.41054
      2.2000000000000002	159968.5693
      2.25	197751.604272
      2.2999999999999998	234024.75134700001
  <EndBlock>
  <BeginBlock>
    <BlockName> = "1018 Steel"
    <Mu_x> = 529
    <Mu_y> = 529
    <H_c> = 0
    <H_cAngle> = 0
    <J_re> = 0
    <J_im> = 0
    <Sigma> = 5.7999999999999998
    <d_lam> = 0
    <Phi_h> = 20
    <Phi_hx> = 0
    <Phi_hy> = 0
    <LamType> = 0
    <LamFill> = 1
    <NStrands> = 0
    <WireD> = 0
    <BHPoints> = 13
      0	0
      0.25030000000000002	238.73249999999999
      0.92500000000000004	795.77499999999998
      1.25	1591.55
      1.3899999999999999	2387.3249999999998
      1.5249999999999999	3978.875
      1.71	7957.75
      1.8700000000000001	15915.5
      1.9550000000000001	23873.25
      2.02	39788.75
      2.1099999999999999	79577.5
      2.2250000000000001	159155
      2.4300000000000002	318310
  <EndBlock>
[CircuitProps]  = 0
[NumPoints] = 137
0	40.5	0	1
2.4971592852991478	40.422941450417042	0	1
2.4971592852991478	39.922941450417042	0	1
0.98950321518245288	39.724454763283383	0	1
0.98950321518245288	31.484454630613243	0	1
2.7454058965512322	31.380132989889983	0	1
3.4863136600845945	39.848747478598249	0	1
7.032751195510679	39.884713996994428	0	1
4.5601482941329161	40.242453299165511	0	1
4.4733242052994502	39.750049422659401	0	1
5.9236087405143829	39.29277646517621	0	1
4.4927477335009485	31.17796044970104	0	1
9.4785919434709669	39.375198980693	0	1
9.3917678546375001	38.882795104186897	0	1
7.8725496163987563	38.949125604952208	0	1
6.4416886093853227	30.834309589477034	0	1
8.1527999207294037	30.426663528105649	0	1
10.353011103851948	38.637963450900216	0	1
13.851815804689583	38.057551141829293	0	1
11.478898075194131	38.839218568082764	0	1
11.307888003531293	38.369372257689804	0	1
12.656734842121342	37.667207037278928	0	1
9.8384888157419716	29.924139717333901	0	1
16.172022381839373	37.131061014752682	0	1
16.001012310176538	36.661214704359729	0	1
14.516392581223107	36.99034697432311	0	1
11.698146554843737	29.247279654378076	0	1
13.312475244832031	28.548695291654475	0	1
16.905137544105159	36.253184455499479	0	1
20.25	35.074028853269773	0	1
18.048867346843267	36.255873834401719	0	1
17.798867346843267	35.822861132509502	0	1
19.005292460167304	34.897138584080388	0	1
14.885292393832238	27.761089142000905	0	1
22.374074103573772	33.758714549102571	0	1
22.124074103573772	33.325701847210347	0	1
20.719162303116072	33.907635368897935	0	1
16.599162236781005	26.77158592681845	0	1
18.06765774505795	25.803289395103242	0	1
22.943609934493086	32.766870795414889	0	1
26.032898192304842	31.024799946318613	0	1
24.070430917326131	32.570912720619773	0	1
23.749037112482856	32.187890499060281	0	1
24.776383883953102	31.066738233808728	0	1
19.479813894857298	24.754531920877128	0	1
27.896300905498869	29.360626624611793	0	1
27.574907100655601	28.977604403052304	0	1
26.292390762830866	29.794657420880178	0	1
20.995820773735058	23.482451107948574	0	1
22.273863607376242	22.273863607376246	0	1
28.284952347048264	28.284952347048268	0	1
31.024799946318609	26.032898192304842	0	1
29.360626624611793	27.896300905498876	0	1
28.977604403052297	27.574907100655601	0	1
29.794657420880171	26.292390762830863	0	1
23.482451107948577	20.995820773735062	0	1
32.570912720619766	24.070430917326131	0	1
32.187890499060273	23.749037112482863	0	1
31.066738233808728	24.776383883953109	0	1
24.754531920877124	19.479813894857301	0	1
25.803289395103238	18.067657745057954	0	1
32.766870795414881	22.943609934493093	0	1
35.074028853269766	20.250000000000004	0	1
33.758714549102571	22.374074103573783	0	1
33.325701847210347	22.124074103573776	0	1
33.907635368897928	20.719162303116072	0	1
26.771585926818446	16.599162236781009	0	1
0	29.300000000000001	0	3
0	27.060000000000002	0	3
25.374544330884053	14.650000000000004	0	3
23.434647426406912	13.530000000000005	0	3
4.7567899366642461	42.217678360761028	0	2
1.5885579323335819	42.455104526662517	0	2
4.5569541774046307	40.444086942654977	0	2
2.1903968643055896	40.641015754737737	0	2
2.2571418345743992	42.424812638511845	0	2
1.521821607046453	40.671538684887828	0	2
7.8984200421360402	41.744153812386756	0	2
6.9079977409104654	40.109469794695315	0	2
7.2398583549634363	41.863395319470769	0	2
7.5666024115306225	39.990455460594831	0	2
10.995878978835748	41.037179022893604	0	2
10.533935135672596	39.313181129965081	0	2
8.2231610288799484	39.86062747490449	0	2
8.5550216429329176	41.614552999679937	0	2
14.031844499943411	40.100707682079971	0	2
12.808847387032026	38.631896518495218	0	2
13.398410427134372	40.316770886323198	0	2
13.442357821575301	38.416051543550559	0	2
16.989338254763105	38.939976917551753	0	2
16.27560538981346	37.304083813908036	0	2
14.072233364433682	38.189818644985991	0	2
14.661796404536027	39.874693012813964	0	2
19.851820738547094	37.561478006580245	0	2
18.423568548510445	36.291350511359262	0	2
19.25766415056988	37.869536413033579	0	2
19.017833170713622	35.983496515637626	0	2
22.603283788115423	35.972920074246666	0	2
21.653705514174202	34.461674908591178	0	2
19.606955260291617	35.66591237331415	0	2
20.441050862351045	37.244098274988453	0	2
25.228340105997923	34.183186980887498	0	2
23.626737632645732	33.140115703451038	0	2
24.686733479213736	34.576359073801974	0	2
24.168481552841513	32.747129636503409	0	2
27.712309312443349	32.20228763994394	0	2
26.548097639019538	30.849449132019934	0	2
24.703690175152886	32.345288555368541	0	2
25.763686021720886	33.781531925719477	0	2
30.041300044057849	30.041300044057852	0	2
28.302124440076383	29.248585473120425	0	2
29.56434197553104	30.510803008575081	0	2
28.779245994292488	28.779245994292488	0	2
32.202287639943933	27.712309312443349	0	2
30.849449132019938	26.548097639019531	0	2
29.248585473120428	28.302124440076387	0	2
30.510803008575071	29.564341975531036	0	2
34.183186980887498	25.228340105997923	0	2
32.345288555368541	24.703690175152886	0	2
33.781531925719477	25.76368602172089	0	2
32.747129636503402	24.16848155284152	0	2
35.972920074246666	22.603283788115426	0	2
34.461674908591171	21.653705514174199	0	2
33.140115703451045	23.626737632645735	0	2
34.576359073801981	24.686733479213736	0	2
37.561478006580245	19.851820738547097	0	2
35.66591237331415	19.606955260291613	0	2
37.24409827498846	20.441050862351048	0	2
35.983496515637619	19.017833170713629	0	2
1.6235256554780586	43.389636601912265	0	20
1.7252297039096642	46.107734518936709	0	20
38.388290385970159	20.288803839616349	0	20
40.793084256302699	21.559774508519077	0	20
0	40.600000000000001	0	0
35.895084976287158	18.971106307886316	0	0
35.16063139364821	20.300000000000004	0	0
1.5180824876188204	40.57160861440898	0	0
[NumSegments] = 82
1	2	1	0	0	1
2	3	1	0	0	1
3	4	1	0	0	1
2	6	1	0	0	1
5	6	1	0	0	1
8	9	1	0	0	1
9	10	1	0	0	1
10	11	1	0	0	1
9	6	1	0	0	1
12	13	1	0	0	1
13	14	1	0	0	1
14	15	1	0	0	1
13	17	1	0	0	1
16	17	1	0	0	1
19	20	1	0	0	1
20	21	1	0	0	1
21	22	1	0	0	1
20	17	1	0	0	1
23	24	1	0	0	1
24	25	1	0	0	1
25	26	1	0	0	1
24	28	1	0	0	1
27	28	1	0	0	1
30	31	1	0	0	1
31	32	1	0	0	1
32	33	1	0	0	1
31	28	1	0	0	1
34	35	1	0	0	1
35	36	1	0	0	1
36	37	1	0	0	1
35	39	1	0	0	1
38	39	1	0	0	1
41	42	1	0	0	1
42	43	1	0	0	1
43	44	1	0	0	1
42	39	1	0	0	1
45	46	1	0	0	1
46	47	1	0	0	1
47	48	1	0	0	1
46	50	1	0	0	1
49	50	1	0	0	1
52	53	1	0	0	1
53	54	1	0	0	1
54	55	1	0	0	1
53	50	1	0	0	1
56	57	1	0	0	1
57	58	1	0	0	1
58	59	1	0	0	1
57	61	1	0	0	1
60	61	1	0	0	1
63	64	1	0	0	1
64	65	1	0	0	1
65	66	1	0	0	1
64	61	1	0	0	1
67	68	1	7	0	1
69	70	1	7	0	1
74	75	1	0	0	2
78	79	1	0	0	2
83	84	1	0	0	2
86	87	1	0	0	2
91	92	1	0	0	2
94	95	1	0	0	2
99	100	1	0	0	2
102	103	1	0	0	2
107	108	1	0	0	2
110	111	1	0	0	2
115	116	1	0	0	2
118	119	1	0	0	2
123	124	1	0	0	2
126	127	1	0	0	2
129	130	1	9	0	2
131	132	1	9	0	2
67	0	1	6	0	1
69	62	1	6	0	1
135	62	1	4	0	7
0	133	1	4	0	7
129	72	1	8	0	2
131	125	1	8	0	2
136	76	-1	0	0	0
76	72	1	5	0	2
134	128	-1	0	0	0
128	125	1	5	0	2
[NumArcSegments] = 86
1	0	3.5366848342485966	1.6005661299291876	0	0	1	1.6005661299291876
5	4	3.2011322598583751	1.6005661299291876	0	0	1	1.6005661299291876
7	8	3.5366848342485966	1.6005661299291876	0	0	1	1.6005661299291876
11	5	3.2011322598583751	1.6005661299291876	0	0	1	1.6005661299291876
12	7	3.5366848342485966	1.6005661299291876	0	0	1	1.6005661299291876
16	15	3.2011322598583751	1.6005661299291876	0	0	1	1.6005661299291876
18	19	3.5366848342485966	1.6005661299291876	0	0	1	1.6005661299291876
22	16	3.2011322598583751	1.6005661299291876	0	0	1	1.6005661299291876
23	18	3.5366848342485966	1.6005661299291876	0	0	1	1.6005661299291876
27	26	3.2011322598583751	1.6005661299291876	0	0	1	1.6005661299291876
29	30	3.5366848342485966	1.6005661299291876	0	0	1	1.6005661299291876
33	27	3.2011322598583751	1.6005661299291876	0	0	1	1.6005661299291876
34	29	3.5366848342485966	1.6005661299291876	0	0	1	1.6005661299291876
38	37	3.2011322598583751	1.6005661299291876	0	0	1	1.6005661299291876
40	41	3.5366848342485966	1.6005661299291876	0	0	1	1.6005661299291876
44	38	3.2011322598583751	1.6005661299291876	0	0	1	1.6005661299291876
45	40	3.5366848342485966	1.6005661299291876	0	0	1	1.6005661299291876
49	48	3.2011322598583751	1.6005661299291876	0	0	1	1.6005661299291876
51	52	3.5366848342485966	1.6005661299291876	0	0	1	1.6005661299291876
55	49	3.2011322598583751	1.6005661299291876	0	0	1	1.6005661299291876
56	51	3.5366848342485966	1.6005661299291876	0	0	1	1.6005661299291876
60	59	3.2011322598583751	1.6005661299291876	0	0	1	1.6005661299291876
62	63	3.5366848342485966	1.6005661299291876	0	0	1	1.6005661299291876
66	60	3.2011322598583751	1.6005661299291876	0	0	1	1.6005661299291876
69	67	59.999999999999993	2	1	0	1	2
70	68	59.999999999999993	5.9999999999999991	0	0	17	1.5
75	72	0.90262651838566299	0.047110772153180137	0	0	2	0.047110772153180137
71	75	3.3845924230680229	0.047110772153180137	0	0	2	0.047110772153180137
73	74	3.3449560664035567	0.047110772153180137	0	0	2	0.047110772153180137
74	76	0.94221544306360272	0.047110772153180137	0	0	2	0.047110772153180137
77	79	0.90262651838566299	0.047110772153180137	0	0	2	0.047110772153180137
79	71	3.3845924230680229	0.047110772153180137	0	0	2	0.047110772153180137
78	73	3.3449560664035567	0.047110772153180137	0	0	2	0.047110772153180137
80	78	0.94221544306360272	0.047110772153180137	0	0	2	0.047110772153180137
84	77	0.90262651838566299	0.047110772153180137	0	0	2	0.047110772153180137
81	84	3.3845924230680229	0.047110772153180137	0	0	2	0.047110772153180137
82	83	3.3449560664035567	0.047110772153180137	0	0	2	0.047110772153180137
83	80	0.94221544306360272	0.047110772153180137	0	0	2	0.047110772153180137
85	87	0.90262651838566299	0.047110772153180137	0	0	2	0.047110772153180137
87	81	3.3845924230680229	0.047110772153180137	0	0	2	0.047110772153180137
86	82	3.3449560664035567	0.047110772153180137	0	0	2	0.047110772153180137
88	86	0.94221544306360272	0.047110772153180137	0	0	2	0.047110772153180137
92	85	0.90262651838566299	0.047110772153180137	0	0	2	0.047110772153180137
89	92	3.3845924230680229	0.047110772153180137	0	0	2	0.047110772153180137
90	91	3.3449560664035567	0.047110772153180137	0	0	2	0.047110772153180137
91	88	0.94221544306360272	0.047110772153180137	0	0	2	0.047110772153180137
93	95	0.90262651838566299	0.047110772153180137	0	0	2	0.047110772153180137
95	89	3.3845924230680229	0.047110772153180137	0	0	2	0.047110772153180137
94	90	3.3449560664035567	0.047110772153180137	0	0	2	0.047110772153180137
96	94	0.94221544306360272	0.047110772153180137	0	0	2	0.047110772153180137
100	93	0.90262651838566299	0.047110772153180137	0	0	2	0.047110772153180137
97	100	3.3845924230680229	0.047110772153180137	0	0	2	0.047110772153180137
98	99	3.3449560664035567	0.047110772153180137	0	0	2	0.047110772153180137
99	96	0.94221544306360272	0.047110772153180137	0	0	2	0.047110772153180137
101	103	0.90262651838566299	0.047110772153180137	0	0	2	0.047110772153180137
103	97	3.3845924230680229	0.047110772153180137	0	0	2	0.047110772153180137
102	98	3.3449560664035567	0.047110772153180137	0	0	2	0.047110772153180137
104	102	0.94221544306360272	0.047110772153180137	0	0	2	0.047110772153180137
108	101	0.90262651838566299	0.047110772153180137	0	0	2	0.047110772153180137
105	108	3.3845924230680229	0.047110772153180137	0	0	2	0.047110772153180137
106	107	3.3449560664035567	0.047110772153180137	0	0	2	0.047110772153180137
107	104	0.94221544306360272	0.047110772153180137	0	0	2	0.047110772153180137
109	111	0.90262651838566299	0.047110772153180137	0	0	2	0.047110772153180137
111	105	3.3845924230680229	0.047110772153180137	0	0	2	0.047110772153180137
110	106	3.3449560664035567	0.047110772153180137	0	0	2	0.047110772153180137
112	110	0.94221544306360272	0.047110772153180137	0	0	2	0.047110772153180137
116	109	0.90262651838566299	0.047110772153180137	0	0	2	0.047110772153180137
113	116	3.3845924230680229	0.047110772153180137	0	0	2	0.047110772153180137
114	115	3.3449560664035567	0.047110772153180137	0	0	2	0.047110772153180137
115	112	0.94221544306360272	0.047110772153180137	0	0	2	0.047110772153180137
117	119	0.90262651838566299	0.047110772153180137	0	0	2	0.047110772153180137
119	113	3.3845924230680229	0.047110772153180137	0	0	2	0.047110772153180137
118	114	3.3449560664035567	0.047110772153180137	0	0	2	0.047110772153180137
120	118	0.94221544306360272	0.047110772153180137	0	0	2	0.047110772153180137
124	117	0.90262651838566299	0.047110772153180137	0	0	2	0.047110772153180137
121	124	3.3845924230680229	0.047110772153180137	0	0	2	0.047110772153180137
122	123	3.3449560664035567	0.047110772153180137	0	0	2	0.047110772153180137
123	120	0.94221544306360272	0.047110772153180137	0	0	2	0.047110772153180137
125	127	0.90262651838566299	0.047110772153180137	0	0	2	0.047110772153180137
127	121	3.3845924230680229	0.047110772153180137	0	0	2	0.047110772153180137
126	122	3.3449560664035567	0.047110772153180137	0	0	2	0.047110772153180137
128	126	0.94221544306360272	0.047110772153180137	0	0	2	0.047110772153180137
131	129	59.999999999999993	2	2	0	2	2
132	130	60.000000000000021	2.0000000000000009	0	0	19	0.93999999999999995
136	133	2.1428571428571428	2	3	0	10	0.060999999999999999
134	135	2.142857142857149	2	3	0	10	0.060999999999999999
[NumHoles] = 0
[NumBlockLabels] = 32
4.6568720570344375	41.330882651707995	2	607811111010162	0	83.571428571428569	12	1	0
7.7325112268333314	40.867304636490793	2	607811111010162	0	-10.714285714285719	12	1	0
10.76490705725417	40.175180076429335	2	607811111010162	0	-105.00000000000001	12	1	0
13.737101160759353	39.258379612815268	2	607811111010162	0	160.71428571428572	12	1	0
16.632471822288277	38.122030365729891	2	607811111010162	0	66.428571428571431	12	1	0
19.434826954630353	36.772487261108928	2	607811111010162	0	-27.857142857142865	12	1	0
22.128494651144802	35.217297491418904	2	607811111010162	0	-122.14285714285714	12	1	0
24.698410829419707	33.465158308695436	2	607811111010162	0	143.57142857142858	12	1	0
27.130203475731427	31.525868385981916	2	607811111010162	0	49.285714285714285	12	1	0
29.41027301917515	29.410273019175147	2	607811111010162	0	-45	12	1	0
31.525868385981919	27.13020347573142	2	607811111010162	0	-139.28571428571431	12	1	0
33.465158308695436	24.698410829419704	2	607811111010162	0	126.42857142857142	12	1	0
35.217297491418897	22.128494651144795	2	607811111010162	0	32.142857142857139	12	1	0
36.753034051151317	19.471589718350039	2	607811111010162	0	-62.14285714285716	12	1	0
1.5967523067737521	41.561745634605607	2	607811111010162	0	177.85714285714286	12	1	0
2.052681496750183	35.609447465596219	4	607811111010162	0	0	11	1	0
8.2050123125913572	34.712015543358781	5	607811111010162	0	0	11	1	0
14.108037981251009	32.759876593963789	7	607811111010162	0	0	11	1	0
19.582398054862029	29.812345371558628	6	607811111010162	0	0	11	1	0
24.461756872747607	25.95898112081332	8	607811111010162	0	0	11	1	0
28.597857586300989	21.316866364590364	9	607811111010162	0	0	11	1	0
4.1620190076627885	35.424904345841377	4	607811111010162	0	0	11	1	0
10.250258670611167	34.163993433404684	6	607811111010162	0	0	11	1	0
16.027049410734183	31.865026868308821	7	607811111010162	0	0	11	1	0
21.316866364590361	28.597857586301004	9	607811111010162	0	0	11	1	0
25.958981120813316	24.461756872747621	8	607811111010162	0	0	11	1	0
29.812345371558624	19.58239805486204	4	607811111010162	0	0	11	1	0
3.3464135908000783	44.654786037773249	1	607811111010162	0	0	0	1	0
1.5721430935600174	30.338273068647844	10	607811111010162	0	0	1	1	0
4.8091437445349365	42.682331257162815	11	607811111010162	0	0	2	1	0
2.8268774102276297	40.064876793144116	1	607811111010162	0	0	0	1	0
2.4560488306290069	28.072766592225388	1	607811111010162	0	0	0	1	0
