[Format]      =  4.0
[Frequency]   =  0
[Precision]   =  1e-008
[MinAngle]    =  30
[DoSmartMesh] =  1
[Depth]       =  8
[LengthUnits] =  millimeters
[ProblemType] =  planar
[Coordinates] =  cartesian
[ACSolver]    =  0
[PrevType]    =  0
[PrevSoln]    =  ""
[Comment]     =  "Add comments here."
[PointProps]   = 0
[BdryProps]   = 9
  <BeginBdry>
    <BdryName> = "Asymptotic_1"
    <BdryType> = 2
    <A_0> = 0
    <A_1> = 0
    <A_2> = 0
    <Phi> = 0
    <c0> = 29407786.97189492
    <c0i> = 0
    <c1> = 0
    <c1i> = 0
    <Mu_ssd> = 0
    <Sigma_ssd> = 0
    <innerangle> = 0
    <outerangle> = 0
  <EndBdry>
  <BeginBdry>
    <BdryName> = "Asymptotic_2"
    <BdryType> = 2
    <A_0> = 0
    <A_1> = 0
    <A_2> = 0
    <Phi> = 0
    <c0> = 17246959.589498844
    <c0i> = 0
    <c1> = 0
    <c1i> = 0
    <Mu_ssd> = 0
    <Sigma_ssd> = 0
    <innerangle> = 0
    <outerangle> = 0
  <EndBdry>
  <BeginBdry>
    <BdryName> = "airgap_radius"
    <BdryType> = 5
    <A_0> = 0
    <A_1> = 0
    <A_2> = 0
    <Phi> = 0
    <c0> = 0
    <c0i> = 0
    <c1> = 0
    <c1i> = 0
    <Mu_ssd> = 0
    <Sigma_ssd> = 0
    <innerangle> = 0
    <outerangle> = 0
  <EndBdry>
  <BeginBdry>
    <BdryName> = "airgap_vertical_1"
    <BdryType> = 5
    <A_0> = 0
    <A_1> = 0
    <A_2> = 0
    <Phi> = 0
    <c0> = 0
    <c0i> = 0
    <c1> = 0
    <c1i> = 0
    <Mu_ssd> = 0
    <Sigma_ssd> = 0
    <innerangle> = 0
    <outerangle> = 0
  <EndBdry>
  <BeginBdry>
    <BdryName> = "airgap_vertical_2"
    <BdryType> = 5
    <A_0> = 0
    <A_1> = 0
    <A_2> = 0
    <Phi> = 0
    <c0> = 0
    <c0i> = 0
    <c1> = 0
    <c1i> = 0
    <Mu_ssd> = 0
    <Sigma_ssd> = 0
    <innerangle> = 0
    <outerangle> = 0
  <EndBdry>
  <BeginBdry>
    <BdryName> = "stator_boundary"
    <BdryType> = 5
    <A_0> = 0
    <A_1> = 0
    <A_2> = 0
    <Phi> = 0
    <c0> = 0
    <c0i> = 0
    <c1> = 0
    <c1i> = 0
    <Mu_ssd> = 0
    <Sigma_ssd> = 0
    <innerangle> = 0
    <outerangle> = 0
  <EndBdry>
  <BeginBdry>
    <BdryName> = "stator_air_side"
    <BdryType> = 5
    <A_0> = 0
    <A_1> = 0
    <A_2> = 0
    <Phi> = 0
    <c0> = 0
    <c0i> = 0
    <c1> = 0
    <c1i> = 0
    <Mu_ssd> = 0
    <Sigma_ssd> = 0
    <innerangle> = 0
    <outerangle> = 0
  <EndBdry>
  <BeginBdry>
    <BdryName> = "rotor_boundary"
    <BdryType> = 5
    <A_0> = 0
    <A_1> = 0
    <A_2> = 0
    <Phi> = 0
    <c0> = 0
    <c0i> = 0
    <c1> = 0
    <c1i> = 0
    <Mu_ssd> = 0
    <Sigma_ssd> = 0
    <innerangle> = 0
    <outerangle> = 0
  <EndBdry>
  <BeginBdry>
    <BdryName> = "rotor_air_side"
    <BdryType> = 5
    <A_0> = 0
    <A_1> = 0
    <A_2> = 0
    <Phi> = 0
    <c0> = 0
    <c0i> = 0
    <c1> = 0
    <c1i> = 0
    <Mu_ssd> = 0
    <Sigma_ssd> = 0
    <innerangle> = 0
    <outerangle> = 0
  <EndBdry>
[BlockProps]  = 11
  <BeginBlock>
    <BlockName> = "Air"
    <Mu_x> = 1
    <Mu_y> = 1
    <H_c> = 0
    <H_cAngle> = 0
    <J_re> = 0
    <J_im> = 0
    <Sigma> = 0
    <d_lam> = 0
    <Phi_h> = 0
    <Phi_hx> = 0
    <Phi_hy> = 0
    <LamType> = 0
    <LamFill> = 1
    <NStrands> = 0
    <WireD> = 0
    <BHPoints> = 0
  <EndBlock>
  <BeginBlock>
    <BlockName> = "N42"
    <Mu_x> = 1.05
    <Mu_y> = 1.05
    <H_c> = 994529
    <H_cAngle> = 0
    <J_re> = 0
    <J_im> = 0
    <Sigma> = 0.66700000000000004
    <d_lam> = 0
    <Phi_h> = 0
    <Phi_hx> = 0
    <Phi_hy> = 0
    <LamType> = 0
    <LamFill> = 1
    <NStrands> = 0
    <WireD> = 0
    <BHPoints> = 0
  <EndBlock>
  <BeginBlock>
    <BlockName> = "wire"
    <Mu_x> = 1
    <Mu_y> = 1
    <H_c> = 0
    <H_cAngle> = 0
    <J_re> = 0
    <J_im> = 0
    <Sigma> = 0
    <d_lam> = 0
    <Phi_h> = 0
    <Phi_hx> = 0
    <Phi_hy> = 0
    <LamType> = 0
    <LamFill> = 1
    <NStrands> = 0
    <WireD> = 0
    <BHPoints> = 0
  <EndBlock>
  <BeginBlock>
    <BlockName> = "A"
    <Mu_x> = 1
    <Mu_y> = 1
    <H_c> = 0
    <H_cAngle> = 0
    <J_re> = 19.73878020146191
    <J_im> = 0
    <Sigma> = 0
    <d_lam> = 0
    <Phi_h> = 0
    <Phi_hx> = 0
    <Phi_hy> = 0
    <LamType> = 0
    <LamFill> = 1
    <NStrands> = 0
    <WireD> = 0
    <BHPoints> = 0
  <EndBlock>
  <BeginBlock>
    <BlockName> = "a"
    <Mu_x> = 1
    <Mu_y> = 1
    <H_c> = 0
    <H_cAngle> = 0
    <J_re> = -19.73878020146191
    <J_im> = -0
    <Sigma> = 0
    <d_lam> = 0
    <Phi_h> = 0
    <Phi_hx> = 0
    <Phi_hy> = 0
    <LamType> = 0
    <LamFill> = 1
    <NStrands> = 0
    <WireD> = 0
    <BHPoints> = 0
  <EndBlock>
  <BeginBlock>
    <BlockName> = "B"
    <Mu_x> = 1
    <Mu_y> = 1
    <H_c> = 0
    <H_cAngle> = 0
    <J_re> = -7.0791540679227225
    <J_im> = -0
    <Sigma> = 0
    <d_lam> = 0
    <Phi_h> = 0
    <Phi_hx> = 0
    <Phi_hy> = 0
    <LamType> = 0
    <LamFill> = 1
    <NStrands> = 0
    <WireD> = 0
    <BHPoints> = 0
  <EndBlock>
  <BeginBlock>
    <BlockName> = "b"
    <Mu_x> = 1
    <Mu_y> = 1
    <H_c> = 0
    <H_cAngle> = 0
    <J_re> = 7.0791540679227225
    <J_im> = 0
    <Sigma> = 0
    <d_lam> = 0
    <Phi_h> = 0
    <Phi_hx> = 0
    <Phi_hy> = 0
    <LamType> = 0
    <LamFill> = 1
    <NStrands> = 0
    <WireD> = 0
    <BHPoints> = 0
  <EndBlock>
  <BeginBlock>
    <BlockName> = "C"
    <Mu_x> = 1
    <Mu_y> = 1
    <H_c> = 0
    <H_cAngle> = 0
    <J_re> = -12.659626133539184
    <J_im> = -0
    <Sigma> = 0
    <d_lam> = 0
    <Phi_h> = 0
    <Phi_hx> = 0
    <Phi_hy> = 0
    <LamType> = 0
    <LamFill> = 1
    <NStrands> = 0
    <WireD> = 0
    <BHPoints> = 0
  <EndBlock>
  <BeginBlock>
    <BlockName> = "c"
    <Mu_x> = 1
    <Mu_y> = 1
    <H_c> = 0
    <H_cAngle> = 0
    <J_re> = 12.659626133539184
    <J_im> = 0
    <Sigma> = 0
    <d_lam> = 0
    <Phi_h> = 0
    <Phi_hx> = 0
    <Phi_hy> = 0
    <LamType> = 0
    <LamFill> = 1
    <NStrands> = 0
    <WireD> = 0
    <BHPoints> = 0
  <EndBlock>
  <BeginBlock>
    <BlockName> = "M-19 Steel"
    <Mu_x> = 4416
    <Mu_y> = 4416
    <H_c> = 0
    <H_cAngle> = 0
    <J_re> = 0
    <J_im> = 0
    <Sigma> = 1.8999999999999999
    <d_lam> = 0.20000000000000001
    <Phi_h> = 0
    <Phi_hx> = 0
    <Phi_hy> = 0
    <LamType> = 0
    <LamFill> = 0.92800000000000005
    <NStrands> = 0
    <WireD> = 0
    <BHPoints> = 47
      0	0
      0.050000000000000003	15.120714
      0.10000000000000001	22.718292000000002
      0.14999999999999999	27.842732999999999
      0.20000000000000001	31.871434000000001
      0.25	35.365043999999997
      0.29999999999999999	38.600588000000002
      0.34999999999999998	41.736201999999999
      0.40000000000000002	44.873978999999999
      0.45000000000000001	48.087806999999998
      0.5	51.437235999999999
      0.55000000000000004	54.975220999999998
      0.59999999999999998	58.752992999999996
      0.65000000000000002	62.823644000000002
      0.69999999999999996	67.245284999999996
      0.75	72.084406000000001
      0.80000000000000004	77.420100000000005
      0.84999999999999998	83.350020999999998
      0.90000000000000002	89.999611999999999
      0.94999999999999996	97.537352999999996
      1	106.20140600000001
      1.05	116.34846400000001
      1.1000000000000001	128.54732899999999
      1.1499999999999999	143.76543100000001
      1.2	163.75416899999999
      1.25	191.86815799999999
      1.3	234.833507
      1.3500000000000001	306.50976900000001
      1.3999999999999999	435.255202
      1.45	674.911968
      1.5	1108.3255690000001
      1.55	1813.085468
      1.6000000000000001	2801.2174209999998
      1.6499999999999999	4053.6531169999998
      1.7	5591.10689
      1.75	7448.318413
      1.8	9708.81567
      1.8500000000000001	12486.931615
      1.8999999999999999	16041.483644
      1.95	21249.420623999998
      2	31313.495878000002
      2.0499999999999998	53589.446877000002
      2.1000000000000001	88477.484601000004
      2.1499999999999999	124329.41054
      2.2000000000000002	159968.5693
      2.25	197751.604272
      2.2999999999999998	234024.75134700001
  <EndBlock>
  <BeginBlock>
    <BlockName> = "1018 Steel"
    <Mu_x> = 529
    <Mu_y> = 529
    <H_c> = 0
    <H_cAngle> = 0
    <J_re> = 0
    <J_im> = 0
    <Sigma> = 5.7999999999999998
    <d_lam> = 0
    <Phi_h> = 20
    <Phi_hx> = 0
    <Phi_hy> = 0
    <LamType> = 0
    <LamFill> = 1
    <NStrands> = 0
    <WireD> = 0
    <BHPoints> = 13
      0	0
      0.25030000000000002	238.73249999999999
      0.92500000000000004	795.77499999999998
      1.25	1591.55
      1.3899999999999999	2387.3249999999998
      1.5249999999999999	3978.875
      1.71	7957.75
      1.8700000000000001	15915.5
      1.9550000000000001	23873.25
      2.02	39788.75
      2.1099999999999999	79577.5
      2.2250000000000001	159155
      2.4300000000000002	318310
  <EndBlock>
[CircuitProps]  = 0
[NumPoints] = 129
0	40.5	0	1
2.4971592852991478	40.422941450417042	0	1
2.4971592852991478	39.922941450417042	0	1
0.98950321518245288	39.724454763283383	0	1
0.98950321518245288	31.484454630613243	0	1
2.7454058965512322	31.380132989889983	0	1
3.4863136600845945	39.848747478598249	0	1
7.032751195510679	39.884713996994428	0	1
4.5601482941329161	40.242453299165511	0	1
4.4733242052994502	39.750049422659401	0	1
5.9236087405143829	39.29277646517621	0	1
4.4927477335009485	31.17796044970104	0	1
9.4785919434709669	39.375198980693	0	1
9.3917678546375001	38.882795104186897	0	1
7.8725496163987563	38.949125604952208	0	1
6.4416886093853227	30.834309589477034	0	1
8.1527999207294037	30.426663528105649	0	1
10.353011103851948	38.637963450900216	0	1
13.851815804689583	38.057551141829293	0	1
11.478898075194131	38.839218568082764	0	1
11.307888003531293	38.369372257689804	0	1
12.656734842121342	37.667207037278928	0	1
9.8384888157419716	29.924139717333901	0	1
16.172022381839373	37.131061014752682	0	1
16.001012310176538	36.661214704359729	0	1
14.516392581223107	36.99034697432311	0	1
11.698146554843737	29.247279654378076	0	1
13.312475244832031	28.548695291654475	0	1
16.905137544105159	36.253184455499479	0	1
20.25	35.074028853269773	0	1
18.048867346843267	36.255873834401719	0	1
17.798867346843267	35.822861132509502	0	1
19.005292460167304	34.897138584080388	0	1
14.885292393832238	27.761089142000905	0	1
22.374074103573772	33.758714549102571	0	1
22.124074103573772	33.325701847210347	0	1
20.719162303116072	33.907635368897935	0	1
16.599162236781005	26.77158592681845	0	1
18.06765774505795	25.803289395103242	0	1
22.943609934493086	32.766870795414889	0	1
26.032898192304842	31.024799946318613	0	1
24.070430917326131	32.570912720619773	0	1
23.749037112482856	32.187890499060281	0	1
24.776383883953102	31.066738233808728	0	1
19.479813894857298	24.754531920877128	0	1
27.896300905498869	29.360626624611793	0	1
27.574907100655601	28.977604403052304	0	1
26.292390762830866	29.794657420880178	0	1
20.995820773735058	23.482451107948574	0	1
22.273863607376242	22.273863607376246	0	1
28.284952347048264	28.284952347048268	0	1
31.024799946318609	26.032898192304842	0	1
29.360626624611793	27.896300905498876	0	1
28.977604403052297	27.574907100655601	0	1
29.794657420880171	26.292390762830863	0	1
23.482451107948577	20.995820773735062	0	1
32.570912720619766	24.070430917326131	0	1
32.187890499060273	23.749037112482863	0	1
31.066738233808728	24.776383883953109	0	1
24.754531920877124	19.479813894857301	0	1
25.803289395103238	18.067657745057954	0	1
32.766870795414881	22.943609934493093	0	1
35.074028853269766	20.250000000000004	0	1
33.758714549102571	22.374074103573783	0	1
33.325701847210347	22.124074103573776	0	1
33.907635368897928	20.719162303116072	0	1
26.771585926818446	16.599162236781009	0	1
0	29.300000000000001	0	3
0	27.060000000000002	0	3
25.374544330884053	14.650000000000004	0	3
23.434647426406912	13.530000000000005	0	3
3.3396579069883794	41.887075394019689	0	2
0.20009448187826448	42.019523583666704	0	2
3.2347471873971219	40.571251036092377	0	2
1.3504157179560443	40.6775906045171	0	2
1.3567038686711939	41.998092273491821	0	2
6.4605446103916631	41.520377687794927	0	2
5.112122857437317	40.377669569831127	0	2
5.3151513359378191	41.682485125962423	0	2
9.5453013276935739	40.921481187312018	0	2
9.2454489299649811	39.635989631689647	0	2
7.3980129764177649	40.021986507428068	0	2
7.601041454918267	41.326802063559356	0	2
12.576676848037515	40.0937351647366	0	2
11.073004044484497	39.164761986137862	0	2
11.468237530055115	40.424744006044556	0	2
15.537718489873724	39.041768711591885	0	2
15.04962262108188	37.815325715416236	0	2
13.280350849834759	38.472357366104994	0	2
13.675584335405373	39.732339386011681	0	2
18.411866907231101	37.771464851001049	0	2
16.78653261876627	37.076978337495298	0	2
17.365142248443032	38.263980904910284	0	2
21.183048696297011	36.289927637435568	0	2
20.517612611596583	35.149929910605131	0	2
18.86602763038562	36.063319334879957	0	2
19.444637260062372	37.250321902294942	0	2
23.835766284411349	34.605442427960938	0	2
22.125077793254952	34.160956260655475	0	2
22.874138384034502	35.248463699685409	0	2
26.355184598779285	32.727429547159169	0	2
25.527273040702454	31.699342755101814	0	2
24.030268528845873	32.848686342555006	0	2
24.779329119625423	33.936193781584933	0	2
28.727214030215976	30.666391604852411	0	2
26.969385290432804	30.481834870233556	0	2
27.872164066502503	31.445554061742456	0	2
30.938589227956395	28.433854761248611	0	2
29.966696372627922	27.540644664036616	0	2
28.657712937195118	28.900267978157572	0	2
29.56049171326481	29.863987169666458	0	2
32.976943284877777	26.042304267978171	0	2
31.211241285790042	26.121799658526495	0	2
32.247571661089502	26.940202708274064	0	2
34.830876898260684	23.505114645502371	0	2
33.736713226064012	22.766734080722195	0	2
32.644991393972532	24.306265383383344	0	2
33.681321769271996	25.124668433130914	0	2
36.490022119313828	20.83647488736969	0	2
34.755889725846423	21.178246607422512	0	2
35.902621792275852	21.833051743647729	0	2
0.20676112334969643	43.419507710680818	0	20
0.21971345535133563	46.139476871736825	0	20
37.705777258938753	21.530693470004561	0	20
40.067815815924327	22.879461001980893	0	20
0	40.600000000000001	0	0
35.256899049122836	20.132338896411451	0	0
35.16063139364821	20.300000000000004	0	0
0.19333260267152635	40.599539683409517	0	0
[NumSegments] = 80
1	2	1	0	0	1
2	3	1	0	0	1
3	4	1	0	0	1
2	6	1	0	0	1
5	6	1	0	0	1
8	9	1	0	0	1
9	10	1	0	0	1
10	11	1	0	0	1
9	6	1	0	0	1
12	13	1	0	0	1
13	14	1	0	0	1
14	15	1	0	0	1
13	17	1	0	0	1
16	17	1	0	0	1
19	20	1	0	0	1
20	21	1	0	0	1
21	22	1	0	0	1
20	17	1	0	0	1
23	24	1	0	0	1
24	25	1	0	0	1
25	26	1	0	0	1
24	28	1	0	0	1
27	28	1	0	0	1
30	31	1	0	0	1
31	32	1	0	0	1
32	33	1	0	0	1
31	28	1	0	0	1
34	35	1	0	0	1
35	36	1	0	0	1
36	37	1	0	0	1
35	39	1	0	0	1
38	39	1	0	0	1
41	42	1	0	0	1
42	43	1	0	0	1
43	44	1	0	0	1
42	39	1	0	0	1
45	46	1	0	0	1
46	47	1	0	0	1
47	48	1	0	0	1
46	50	1	0	0	1
49	50	1	0	0	1
52	53	1	0	0	1
53	54	1	0	0	1
54	55	1	0	0	1
53	50	1	0	0	1
56	57	1	0	0	1
57	58	1	0	0	1
58	59	1	0	0	1
57	61	1	0	0	1
60	61	1	0	0	1
63	64	1	0	0	1
64	65	1	0	0	1
65	66	1	0	0	1
64	61	1	0	0	1
67	68	1	7	0	1
69	70	1	7	0	1
74	75	1	0	0	2
77	78	1	0	0	2
81	82	1	0	0	2
84	85	1	0	0	2
88	89	1	0	0	2
91	92	1	0	0	2
95	96	1	0	0	2
98	99	1	0	0	2
102	103	1	0	0	2
105	106	1	0	0	2
109	110	1	0	0	2
112	113	1	0	0	2
116	117	1	0	0	2
119	120	1	0	0	2
121	122	1	9	0	2
123	124	1	9	0	2
67	0	1	6	0	1
69	62	1	6	0	1
127	62	1	4	0	7
0	125	1	4	0	7
121	72	1	8	0	2
123	118	1	8	0	2
128	72	1	5	0	2
126	118	1	5	0	2
[NumArcSegments] = 72
1	0	3.5366848342485966	1.6005661299291876	0	0	1	1.6005661299291876
5	4	3.2011322598583751	1.6005661299291876	0	0	1	1.6005661299291876
7	8	3.5366848342485966	1.6005661299291876	0	0	1	1.6005661299291876
11	5	3.2011322598583751	1.6005661299291876	0	0	1	1.6005661299291876
12	7	3.5366848342485966	1.6005661299291876	0	0	1	1.6005661299291876
16	15	3.2011322598583751	1.6005661299291876	0	0	1	1.6005661299291876
18	19	3.5366848342485966	1.6005661299291876	0	0	1	1.6005661299291876
22	16	3.2011322598583751	1.6005661299291876	0	0	1	1.6005661299291876
23	18	3.5366848342485966	1.6005661299291876	0	0	1	1.6005661299291876
27	26	3.2011322598583751	1.6005661299291876	0	0	1	1.6005661299291876
29	30	3.5366848342485966	1.6005661299291876	0	0	1	1.6005661299291876
33	27	3.2011322598583751	1.6005661299291876	0	0	1	1.6005661299291876
34	29	3.5366848342485966	1.6005661299291876	0	0	1	1.6005661299291876
38	37	3.2011322598583751	1.6005661299291876	0	0	1	1.6005661299291876
40	41	3.5366848342485966	1.6005661299291876	0	0	1	1.6005661299291876
44	38	3.2011322598583751	1.6005661299291876	0	0	1	1.6005661299291876
45	40	3.5366848342485966	1.6005661299291876	0	0	1	1.6005661299291876
49	48	3.2011322598583751	1.6005661299291876	0	0	1	1.6005661299291876
51	52	3.5366848342485966	1.6005661299291876	0	0	1	1.6005661299291876
55	49	3.2011322598583751	1.6005661299291876	0	0	1	1.6005661299291876
56	51	3.5366848342485966	1.6005661299291876	0	0	1	1.6005661299291876
60	59	3.2011322598583751	1.6005661299291876	0	0	1	1.6005661299291876
62	63	3.5366848342485966	1.6005661299291876	0	0	1	1.6005661299291876
66	60	3.2011322598583751	1.6005661299291876	0	0	1	1.6005661299291876
69	67	59.999999999999993	10	1	0	1	10
70	68	59.999999999999993	5.9999999999999991	0	0	17	1.5
75	72	1.577548474929243	0.26578578774873568	0	0	2	0.26578578774873568
71	75	2.7090724674471058	0.26578578774873568	0	0	2	0.26578578774873568
73	74	2.6578578774873569	0.26578578774873568	0	0	2	0.26578578774873568
76	78	1.577548474929243	0.26578578774873568	0	0	2	0.26578578774873568
78	71	2.7090724674471058	0.26578578774873568	0	0	2	0.26578578774873568
77	73	2.6578578774873569	0.26578578774873568	0	0	2	0.26578578774873568
82	76	1.577548474929243	0.26578578774873568	0	0	2	0.26578578774873568
79	82	2.7090724674471058	0.26578578774873568	0	0	2	0.26578578774873568
80	81	2.6578578774873569	0.26578578774873568	0	0	2	0.26578578774873568
83	85	1.577548474929243	0.26578578774873568	0	0	2	0.26578578774873568
85	79	2.7090724674471058	0.26578578774873568	0	0	2	0.26578578774873568
84	80	2.6578578774873569	0.26578578774873568	0	0	2	0.26578578774873568
89	83	1.577548474929243	0.26578578774873568	0	0	2	0.26578578774873568
86	89	2.7090724674471058	0.26578578774873568	0	0	2	0.26578578774873568
87	88	2.6578578774873569	0.26578578774873568	0	0	2	0.26578578774873568
90	92	1.577548474929243	0.26578578774873568	0	0	2	0.26578578774873568
92	86	2.7090724674471058	0.26578578774873568	0	0	2	0.26578578774873568
91	87	2.6578578774873569	0.26578578774873568	0	0	2	0.26578578774873568
96	90	1.577548474929243	0.26578578774873568	0	0	2	0.26578578774873568
93	96	2.7090724674471058	0.26578578774873568	0	0	2	0.26578578774873568
94	95	2.6578578774873569	0.26578578774873568	0	0	2	0.26578578774873568
97	99	1.577548474929243	0.26578578774873568	0	0	2	0.26578578774873568
99	93	2.7090724674471058	0.26578578774873568	0	0	2	0.26578578774873568
98	94	2.6578578774873569	0.26578578774873568	0	0	2	0.26578578774873568
103	97	1.577548474929243	0.26578578774873568	0	0	2	0.26578578774873568
100	103	2.7090724674471058	0.26578578774873568	0	0	2	0.26578578774873568
101	102	2.6578578774873569	0.26578578774873568	0	0	2	0.26578578774873568
104	106	1.577548474929243	0.26578578774873568	0	0	2	0.26578578774873568
106	100	2.7090724674471058	0.26578578774873568	0	0	2	0.26578578774873568
105	101	2.6578578774873569	0.26578578774873568	0	0	2	0.26578578774873568
110	104	1.577548474929243	0.26578578774873568	0	0	2	0.26578578774873568
107	110	2.7090724674471058	0.26578578774873568	0	0	2	0.26578578774873568
108	109	2.6578578774873569	0.26578578774873568	0	0	2	0.26578578774873568
111	113	1.577548474929243	0.26578578774873568	0	0	2	0.26578578774873568
113	107	2.7090724674471058	0.26578578774873568	0	0	2	0.26578578774873568
112	108	2.6578578774873569	0.26578578774873568	0	0	2	0.26578578774873568
117	111	1.577548474929243	0.26578578774873568	0	0	2	0.26578578774873568
114	117	2.7090724674471058	0.26578578774873568	0	0	2	0.26578578774873568
115	116	2.6578578774873569	0.26578578774873568	0	0	2	0.26578578774873568
118	120	1.577548474929243	0.26578578774873568	0	0	2	0.26578578774873568
120	114	2.7090724674471058	0.26578578774873568	0	0	2	0.26578578774873568
119	115	2.6578578774873569	0.26578578774873568	0	0	2	0.26578578774873568
123	121	60.000000000000021	10	2	0	2	10
124	122	60.000000000000021	6.0000000000000018	0	0	19	0.75
128	125	0.27283704530039204	10	3	0	10	0.034000000000000002
126	127	0.27283704530040426	10	3	0	10	0.034000000000000002
[NumHoles] = 0
[NumBlockLabels] = 24
3.2872025471927508	41.229163215056033	2	607811111010162	0	85.441448668985331	12	1	0
9.3953751288292757	40.278735409500833	2	607811111010162	0	-103.12997990244327	12	1	0
15.293670555477801	38.428547213504068	2	607811111010162	0	68.298591526128178	12	1	0
20.850330653946791	35.719928774020339	2	607811111010162	0	-120.27283704530041	12	1	0
25.941228819740861	32.213386151130493	2	607811111010162	0	51.155734383271046	12	1	0
30.452642800292153	27.987249712642612	2	607811111010162	0	-137.41569418815754	12	1	0
34.283795062162341	23.135924363112277	2	607811111010162	0	34.0128772404139	12	1	0
2.052681496750183	35.609447465596219	4	607811111010162	0	0	11	1	0
8.2050123125913572	34.712015543358781	5	607811111010162	0	0	11	1	0
14.108037981251009	32.759876593963789	7	607811111010162	0	0	11	1	0
19.582398054862029	29.812345371558628	6	607811111010162	0	0	11	1	0
24.461756872747607	25.95898112081332	8	607811111010162	0	0	11	1	0
28.597857586300989	21.316866364590364	9	607811111010162	0	0	11	1	0
4.1620190076627885	35.424904345841377	4	607811111010162	0	0	11	1	0
10.250258670611167	34.163993433404684	6	607811111010162	0	0	11	1	0
16.027049410734183	31.865026868308821	7	607811111010162	0	0	11	1	0
21.316866364590361	28.597857586301004	9	607811111010162	0	0	11	1	0
25.958981120813316	24.461756872747621	8	607811111010162	0	0	11	1	0
29.812345371558624	19.58239805486204	4	607811111010162	0	0	11	1	0
1.8874468693909532	44.740205009758576	1	607811111010162	0	0	0	1	0
1.5721430935600174	30.338273068647844	10	607811111010162	0	0	1	1	0
3.3952923794988954	42.584861038375095	11	607811111010162	0	0	2	1	0
2.8268774102276297	40.064876793144116	1	607811111010162	0	0	0	1	0
2.4560488306290069	28.072766592225388	1	607811111010162	0	0	0	1	0
